ROMS/TOMS Framework: August 24, 2018
===================

Copyright (c) 2002-2018 The ROMS/TOMS Group
  Licensed under a MIT/X style license
  See License_ROMS.txt

svn: $HeadURL: https://www.myroms.org/svn/src/trunk/ROMS/Version $
svn: $LastChangedBy: arango $
svn: $LastChangedRevision: 920 $
svn: $LastChangedDate: 2018-08-24 12:20:22 -0400 (Fri, 24 Aug 2018) $